Version 4
SHEET 1 880 1136
WIRE -16 -320 -64 -320
WIRE 112 -320 64 -320
WIRE 288 -320 112 -320
WIRE 112 -288 112 -320
WIRE -64 -176 -64 -320
WIRE -64 -176 -128 -176
WIRE -16 -176 -64 -176
WIRE 112 -176 112 -224
WIRE 112 -176 64 -176
WIRE 192 -176 112 -176
WIRE 288 -160 288 -320
WIRE 288 -160 256 -160
WIRE 400 -160 288 -160
WIRE -992 -144 -1120 -144
WIRE -736 -144 -992 -144
WIRE 192 -144 128 -144
WIRE 32 -128 -256 -128
WIRE 128 -128 128 -144
WIRE 128 -128 32 -128
WIRE -64 -112 -64 -176
WIRE 208 -80 208 -128
WIRE -992 16 -992 -144
WIRE -736 16 -992 16
WIRE -2048 96 -2080 96
WIRE -1776 96 -1824 96
WIRE -1664 96 -1776 96
WIRE -1584 96 -1664 96
WIRE -992 96 -992 16
WIRE -992 96 -1440 96
WIRE -2080 112 -2080 96
WIRE -1664 112 -1664 96
WIRE -1776 128 -1776 96
WIRE 208 176 208 128
WIRE -992 192 -992 96
WIRE -736 192 -992 192
WIRE 16 192 16 160
WIRE 16 192 -128 192
WIRE 192 192 16 192
WIRE -1776 208 -1776 192
WIRE -1664 208 -1664 192
WIRE -1664 208 -1776 208
WIRE 288 208 256 208
WIRE 400 208 288 208
WIRE -1776 224 -1776 208
WIRE -112 224 -256 224
WIRE -48 224 -112 224
WIRE 32 224 -48 224
WIRE 144 224 112 224
WIRE 192 224 144 224
WIRE 144 272 144 224
WIRE -992 384 -992 192
WIRE -736 384 -992 384
WIRE -48 400 -48 224
WIRE 32 400 -48 400
WIRE 144 400 144 336
WIRE 144 400 112 400
WIRE 288 400 288 208
WIRE 288 400 144 400
FLAG -64 -48 0
FLAG 32 -64 0
FLAG -112 288 0
FLAG 16 96 0
FLAG 400 -160 Output1
IOPIN 400 -160 Out
FLAG 400 208 Output2
IOPIN 400 208 Out
FLAG -144 -352 0
FLAG -144 -432 Vdd
IOPIN -144 -432 Out
FLAG -720 432 0
FLAG -720 240 0
FLAG -720 64 0
FLAG -720 -96 0
FLAG -1264 800 0deg
IOPIN -1264 800 Out
FLAG -1264 1040 90deg
IOPIN -1264 1040 Out
FLAG -512 1040 180deg
IOPIN -512 1040 Out
FLAG -512 800 270deg
IOPIN -512 800 Out
FLAG -512 880 0
FLAG -512 1120 0
FLAG -1264 1120 0
FLAG -1264 880 0
FLAG -672 432 180deg
IOPIN -672 432 In
FLAG -672 -96 0deg
IOPIN -672 -96 In
FLAG -672 64 90deg
IOPIN -672 64 In
FLAG -672 240 270deg
IOPIN -672 240 In
FLAG -1120 -64 0
FLAG -1120 -224 Vdd
IOPIN -1120 -224 In
FLAG -2080 192 0
FLAG -1776 224 0
FLAG 208 -192 Vdd
IOPIN 208 -192 In
FLAG 208 240 Vdd
IOPIN 208 240 In
FLAG 208 128 0
FLAG 208 -80 0
FLAG -656 -144 00
IOPIN -656 -144 Out
FLAG -208 -176 00
IOPIN -208 -176 In
FLAG -656 16 01
IOPIN -656 16 Out
FLAG -336 224 01
IOPIN -336 224 In
FLAG -336 -128 10
IOPIN -336 -128 In
FLAG -208 192 11
IOPIN -208 192 In
FLAG -656 384 10
IOPIN -656 384 Out
FLAG -656 192 11
IOPIN -656 192 Out
FLAG 240 -128 0
FLAG 240 176 0
SYMBOL res -112 -192 R90
WINDOW 0 0 56 VBottom 2
WINDOW 3 32 56 VTop 2
SYMATTR InstName R2
SYMATTR Value 51
SYMBOL res -240 -144 R90
WINDOW 0 0 56 VBottom 2
WINDOW 3 32 56 VTop 2
SYMATTR InstName R3
SYMATTR Value 51
SYMBOL res -112 176 R90
WINDOW 0 0 56 VBottom 2
WINDOW 3 32 56 VTop 2
SYMATTR InstName R4
SYMATTR Value 51
SYMBOL res -240 208 R90
WINDOW 0 0 56 VBottom 2
WINDOW 3 32 56 VTop 2
SYMATTR InstName R5
SYMATTR Value 51
SYMBOL cap -80 -112 R0
SYMATTR InstName C2
SYMATTR Value 22n
SYMBOL cap 16 -128 R0
SYMATTR InstName C3
SYMATTR Value 6.8n
SYMBOL cap -128 224 R0
SYMATTR InstName C4
SYMATTR Value 22n
SYMBOL cap 0 96 R0
SYMATTR InstName C5
SYMATTR Value 6.8n
SYMBOL voltage -144 -448 R0
WINDOW 123 0 0 Left 0
WINDOW 39 0 0 Left 0
SYMATTR InstName V2
SYMATTR Value 5
SYMBOL sw -752 -144 R270
SYMATTR InstName S1
SYMATTR Value MYSW
SYMBOL sw -752 16 R270
SYMATTR InstName S2
SYMATTR Value MYSW
SYMBOL sw -752 192 R270
SYMATTR InstName S3
SYMATTR Value MYSW
SYMBOL sw -752 384 R270
SYMATTR InstName S4
SYMATTR Value MYSW
SYMBOL voltage -1264 784 R0
SYMATTR InstName V1
SYMATTR Value PULSE(0 3.3 0 0.001p 0.001p {SwTime} {4*SwTime})
SYMBOL voltage -512 784 R0
SYMATTR InstName V3
SYMATTR Value PULSE(0 3.3 {3*SwTime} 0.001p 0.001p {SwTime} {4*SwTime})
SYMBOL voltage -1264 1024 R0
SYMATTR InstName V4
SYMATTR Value PULSE(0 3.3 {SwTime} 0.001p 0.001p {SwTime} {4*SwTime})
SYMBOL voltage -512 1024 R0
SYMATTR InstName V5
SYMATTR Value PULSE(0 3.3 {2*SwTime} 0.001p 0.001p {SwTime} {4*SwTime})
SYMBOL res -1136 -240 R0
SYMATTR InstName R7
SYMATTR Value 10000
SYMBOL res -1136 -160 R0
SYMATTR InstName R8
SYMATTR Value 10000
SYMBOL cap -1792 128 R0
SYMATTR InstName C10
SYMATTR Value 2.2n
SYMBOL cap -1520 80 R90
WINDOW 0 0 32 VBottom 2
WINDOW 3 32 32 VTop 2
SYMATTR InstName C12
SYMATTR Value 130p
SYMBOL cap -1904 80 R90
WINDOW 0 0 32 VBottom 2
WINDOW 3 38 37 VTop 2
SYMATTR InstName C13
SYMATTR Value 130p
SYMBOL ind -1680 96 R0
SYMATTR InstName L1
SYMATTR Value 180n
SYMBOL voltage -2080 96 R0
SYMATTR InstName V6
SYMATTR Value SINE(0 1 {RF_freq})
SYMBOL res -1952 80 R90
WINDOW 0 0 56 VBottom 2
WINDOW 3 32 56 VTop 2
SYMATTR InstName R9
SYMATTR Value 50
SYMBOL ind -1920 112 R270
WINDOW 0 32 56 VTop 2
WINDOW 3 5 56 VBottom 2
SYMATTR InstName L2
SYMATTR Value 2.7µ
SYMBOL ind -1536 112 R270
WINDOW 0 32 56 VTop 2
WINDOW 3 5 56 VBottom 2
SYMATTR InstName L3
SYMATTR Value 2.7µ
SYMBOL cap 96 -288 R0
SYMATTR InstName C1
SYMATTR Value 14p
SYMBOL res 80 -192 R90
WINDOW 0 0 56 VBottom 2
WINDOW 3 32 56 VTop 2
SYMATTR InstName R1
SYMATTR Value 5.1
SYMBOL res 80 -336 R90
WINDOW 0 0 56 VBottom 2
WINDOW 3 32 56 VTop 2
SYMATTR InstName R10
SYMATTR Value 5.1k
SYMBOL res 128 208 R90
WINDOW 0 0 56 VBottom 2
WINDOW 3 32 56 VTop 2
SYMATTR InstName R6
SYMATTR Value 51
SYMBOL res 128 384 R90
WINDOW 0 0 56 VBottom 2
WINDOW 3 32 56 VTop 2
SYMATTR InstName R11
SYMATTR Value 5.1k
SYMBOL cap 128 272 R0
SYMATTR InstName C6
SYMATTR Value 1n
SYMBOL AD8041 224 -160 R0
SYMATTR InstName U1
SYMBOL AD8041 224 208 M180
SYMATTR InstName U2
TEXT -1080 528 Left 2 !.tran 0 500u
TEXT -1080 560 Left 2 ;.ac dec 10 6Meg 14Meg
TEXT -968 -352 Left 2 !.model SW SW (Ron=0.1 Roff=1e9 Vt=0.1 Vh=0.0)
TEXT -1720 592 Left 2 !.model MYSW SW(Vt=0.9 Vh=0 Ron=1 Roff=100G)
TEXT -1720 632 Left 2 !.param RF_freq=10Meg LO_freq={RF_freq - Audio_freq} LO_period={1/LO_freq} SwTime={LO_period/4}
TEXT -1080 592 Left 2 !;.step oct param Audio_freq 1000 10000 1
TEXT -544 592 Left 2 !.param Audio_freq = 1000
